7
1_0-trans E[RI-MP2/aV[DTQ]Z]	-699.0652	-699.4145	-699.5304
  S       0.000099      0.000025      0.177304
  O      -0.002389      1.302973      0.850581
  O       0.002200     -1.302974      0.850480
  O      -1.272766     -0.064657     -0.866023
  O       1.273109      0.064650     -0.865851
  H      -1.438228      0.852690     -1.154976
  H       1.437975     -0.852707     -1.155178
