10
1_1-A1 E[RI-MP2/aV[DTQ]Z]	-775.3463	-775.7642	-775.9028
  S       0.594320     -0.065706      0.143252
  O      -0.213804      0.381131      1.295350
  O       1.861775     -0.793615      0.274399
  O      -0.334078     -0.921016     -0.868455
  O       0.864900      1.318245     -0.710902
  H      -1.277146     -0.612797     -0.717233
  H       1.582692      1.115356     -1.339636
  O      -2.688291      0.087608     -0.122630
  H      -2.288241      0.396512      0.708990
  H      -3.430044     -0.471965      0.143227
