10
1_1-A2 E[RI-MP2/aV[DTQ]Z]	-775.3464	-775.7641	-775.9027
  S       0.010464      0.505484      0.025684
  O      -1.116952      1.201325     -0.625323
  O       1.151420      1.197926      0.635100
  O      -0.554951     -0.529465      1.131845
  O       0.575581     -0.512795     -1.147517
  H      -1.469238     -0.801981      0.820258
  H       1.459578     -0.801636     -0.852973
  O      -2.986906     -0.868098      0.097592
  H      -3.221959     -1.590320     -0.500242
  H      -2.853850     -0.093782     -0.476449
