10
1_1-B1 E[RI-MP2/aV[DTQ]Z]	-775.3445	-775.7623	-775.9009
  S      -0.940047     -0.011426      0.071632
  O      -0.611672      1.559651     -0.298832
  O      -0.307319     -0.804977     -1.189339
  O      -2.392648     -0.133045     -0.006183
  O      -0.153868     -0.351532      1.287289
  H       0.275893      1.748184      0.057650
  H       0.599910     -1.121208     -0.907193
  O       2.016163     -1.527453     -0.079814
  H       1.624594     -1.420747      0.804290
  H       2.372000     -2.425584     -0.102621
