16
1_3-B1 E[RI-MP2/aV[DTQ]Z]	-927.9079	-928.4625	-928.6462
  S     -0.440966   -0.543472   -0.250211
  O      0.721472   -1.427726   -0.020756
  O     -1.701503   -1.090387   -0.791930
  O     -0.717847    0.178104    1.179409
  O     -0.047089    0.683801   -1.208890
  H     -1.643613    0.555618    1.116629
  H      0.820328    1.099317   -0.867344
  O      2.170140    1.738656   -0.363072
  H      2.712811    1.014163    0.033884
  H      2.064518    2.390189    0.342708
  O      3.272653   -0.482715    0.712109
  H      2.460858   -0.998343    0.540772
  H      3.984912   -0.994776    0.308860
  O     -3.268060    0.812337    0.666299
  H     -3.231690    0.157467   -0.054284
  H     -3.533509    1.638304    0.240231
