16
1_3-C1 E[RI-MP2/aV[DTQ]Z]	-927.9033	-928.4574	-928.6412
  S      -1.220692      0.114346      0.060750
  O      -0.899626      1.524367     -0.241806
  O      -0.960305     -0.445993      1.406183
  O      -2.815072      0.006399     -0.294158
  O      -0.605726     -0.857397     -1.049210
  H      -3.104751     -0.882979     -0.017810
  H       0.170260     -1.391552     -0.597113
  O       1.305456     -2.104149      0.044975
  H       2.093139     -1.500470     -0.003996
  H       1.099613     -2.166426      0.989240
  O       3.270231     -0.288304     -0.055638
  H       2.825178      0.591329     -0.056620
  H       3.900276     -0.257889     -0.786005
  O       1.885835      2.066557      0.030512
  H       1.951200      2.575031      0.848903
  H       0.925437      1.950139     -0.103793
