16
1_3-I1 E[RI-MP2/aV[DTQ]Z]	-927.9053	-928.4611	-928.6452
  O       2.051226      0.059575      1.078319
  H       1.037253     -0.024317      1.311220
  H       2.067051      0.880272      0.474716
  H       2.185391     -0.745022      0.466708
  O       1.671281      2.087829     -0.465849
  H       0.699358      1.964807     -0.597801
  H       2.044226      2.139177     -1.355775
  O       1.982699     -1.894133     -0.585051
  H       2.055869     -2.816075     -0.306260
  H       1.028241     -1.756082     -0.808041
  S      -1.040299     -0.039858     -0.019196
  O      -2.631458     -0.335674      0.294703
  O      -0.438102     -0.203947      1.366430
  O      -0.973495      1.362222     -0.560706
  O      -0.571303     -1.086444     -0.992441
  H      -3.123621      0.042343     -0.456979
