16
1_3-B2 E[RI-MP2/aV[DTQ]Z]	-927.9077	-928.4623	-928.6461
  S      -0.064215     -0.465201      0.076961
  O       1.160537     -1.271382      0.272984
  O      -1.372337     -1.127298     -0.104243
  O      -0.124712      0.535736      1.357597
  O       0.100322      0.534441     -1.164991
  H      -1.075594      0.844916      1.418739
  H       0.977998      1.046123     -1.059998
  O       2.335839      1.825803     -0.911720
  H       2.985824      1.205059     -0.501330
  H       2.288871      2.579176     -0.308218
  O       3.740121     -0.133117      0.319003
  H       2.935102     -0.679091      0.411650
  H       4.378579     -0.704193     -0.126478
  O      -2.758650      1.006164      1.202099
  H      -2.824529      0.196050      0.664757
  H      -3.351485      0.861024      1.951294
