19
1_4-I1 E[RI-MP2/aV[DTQ]Z]	-1004.1889	-1004.8123	-1005.0186
  O      2.541788   -0.027247    0.011867
  H      2.168062    0.918552   -0.141983
  H      2.142030   -0.616684   -0.728886
  H      2.136791   -0.362937    0.895356
  O      1.448084    2.263537   -0.248124
  H      0.539613    2.028974    0.072640
  H      1.316482    2.616873   -1.138427
  O      1.385194   -1.346603   -1.846347
  H      0.485047   -0.931207   -1.792893
  H      1.231511   -2.289812   -1.699234
  O      1.376478   -0.954958    2.088122
  H      1.228348   -0.355706    2.832527
  H      0.475009   -1.107715    1.703783
  S     -1.230113    0.020662    0.002575
  O     -2.879334    0.139057    0.077135
  O     -0.796379    1.222684    0.790884
  O     -0.868268    0.070492   -1.464089
  O     -0.865222   -1.300546    0.638984
  H     -3.227440   -0.618704   -0.427081
