22
1_5-C7 E[RI-MP2/aV[DTQ]Z]	-1080.4653	-1081.1552	-1081.3840
  O      -0.251203     -0.956586      0.649955
  H      -1.101436     -0.789190      1.184670
  S      -0.427048     -0.274886     -0.807544
  O      -1.764012     -0.582351     -1.365237
  O      -0.448626      1.291689     -0.497277
  H       0.455151      1.580819     -0.098141
  O       0.789246     -0.664050     -1.554574
  O       2.752503     -1.916848      0.063466
  H       2.205799     -2.286569      0.769748
  H       2.093080     -1.584456     -0.576380
  O       3.850639      0.502934      0.669435
  H       3.538230     -0.416101      0.489308
  H       4.609976      0.630361      0.087469
  O      -2.427208     -0.501994      2.018633
  H      -3.050085     -0.015616      1.426437
  H      -2.901062     -1.305579      2.269895
  O      -3.800567      0.780717      0.051912
  H      -3.204886      0.433709     -0.640368
  H      -4.692507      0.654546     -0.293981
  O       1.733812      2.139019      0.531938
  H       1.617213      2.413393      1.450843
  H       2.535720      1.552893      0.540397
