22
1_5-B1 E[RI-MP2/aV[DTQ]Z]	-1080.4685	-1081.1577	-1081.3859
  O       1.581283     -1.608334     -0.152135
  H       0.624812     -1.900838     -0.065687
  S       1.709634     -0.036193      0.162367
  O       3.125241      0.305752      0.015008
  O       0.832161      0.562515     -1.075719
  H       0.381977      1.413326     -0.741799
  O       0.992372      0.318554      1.421176
  O      -2.781257      1.155838      0.060583
  H      -3.680192      1.439489      0.269005
  H      -2.487837      0.570441      0.814405
  O      -1.699611     -0.442146      1.881365
  H      -1.635400     -1.323663      1.473887
  H      -0.765265     -0.155220      1.892714
  O      -0.962689     -2.424172     -0.056685
  H      -1.096316     -3.353023     -0.286471
  H      -1.372662     -1.889770     -0.792476
  O      -1.818001     -0.690660     -1.882290
  H      -2.281424      0.000048     -1.367429
  H      -0.958640     -0.286387     -2.083980
  O      -0.496181      2.653221     -0.283496
  H      -0.195188      2.962074      0.582666
  H      -1.392589      2.281429     -0.124358
