22
1_5-I1 E[RI-MP2/aV[DTQ]Z] -1080.4706	-1081.1610	-1081.3897
  O      -1.622170     -1.411609     -0.445807
  H      -0.047105     -2.437849     -0.373926
  S      -1.429627      0.011893     -0.021070
  O      -0.669567      0.850792     -1.039624
  O      -2.905456      0.750765     -0.068357
  H      -3.454496      0.298942      0.598617
  O      -0.917950      0.179752      1.383763
  O       2.820314      0.724930     -0.005735
  H       2.574986      0.222950      0.798684
  H       2.333348      1.579212      0.083782
  O       1.480474     -0.475085     -1.763374
  H       0.605970      0.014666     -1.650980
  H       2.114169      0.030259     -1.093084
  O       0.924020     -2.573852     -0.419534
  H       1.223103     -2.320336      0.476089
  H       1.305875     -1.387029     -1.308901
  O       1.033878      2.767915      0.130270
  H       0.272212      2.268346     -0.227946
  H       1.000983      3.630046     -0.301953
  O       1.519637     -0.955916      1.858530
  H       1.678220     -1.110361      2.798516
  H       0.629931     -0.528672      1.810171
