22
1_5-A10 E[RI-MP2/aV[DTQ]Z]	-1080.4653	-1081.1552	-1081.3839
  O       0.586677      0.457720     -1.335620
  H      -0.275141      1.012714     -1.466588
  S       0.260751     -0.759703     -0.343438
  O       1.483057     -1.591283     -0.313015
  O       0.048017     -0.038600      1.090607
  H       0.954213      0.327828      1.396219
  O      -1.045403     -1.367201     -0.676678
  O      -2.533327      1.532818      0.885313
  H      -3.114421      0.745009      0.867117
  H      -1.737663      1.181660      1.315961
  O      -3.492047     -1.064192      0.742966
  H      -4.201999     -1.651244      0.457772
  H      -2.696454     -1.366475      0.268208
  O      -1.528484      1.876495     -1.577400
  H      -1.969242      1.834699     -0.684361
  H      -2.176984      1.511264     -2.194056
  O       3.817944      0.021228     -0.307279
  H       3.850121      0.579625     -1.095303
  H       3.131071     -0.641309     -0.515571
  O       2.354270      0.875699      1.822304
  H       3.005583      0.653848      1.111704
  H       2.431100      1.828760      1.958306
