22
1_5-A3 E[RI-MP2/aV[DTQ]Z]	-1080.4667	-1081.1569	-1081.3855
  O      -0.191563     -0.558701      1.280577
  H       0.633580      0.042469      1.500406
  S      -0.202826     -0.798186     -0.302706
  O       0.957882     -1.602835     -0.746406
  O      -1.492000     -1.707742     -0.446217
  H      -2.299414     -1.207882     -0.046230
  O      -0.395685      0.521320     -0.988841
  O      -2.599390      2.023790     -0.059207
  H      -1.777870      1.674454     -0.457478
  H      -2.970727      2.619462     -0.721991
  O       2.116910      2.027942     -0.746023
  H       2.815781      1.382973     -0.948457
  H       1.317334      1.618893     -1.120630
  O       1.858804      0.877743      1.734145
  H       1.917733      1.490711      0.960655
  H       2.628472      0.302200      1.577394
  O       3.507450     -0.517620     -0.184549
  H       2.722979     -1.035813     -0.452353
  H       4.262804     -1.083734     -0.386123
  O      -3.494033     -0.449314      0.553840
  H      -3.332602      0.509836      0.376946
  H      -3.514329     -0.527766      1.517530
