22
1_5-A9 E[RI-MP2/aV[DTQ]Z]	-1080.4644	-1081.1551	-1081.3839
  O      -0.252431      0.193507     -0.874983
  H      -1.113730      0.739262     -0.960028
  S      -0.277452     -0.585147      0.546232
  O       0.982748     -1.352133      0.596412
  O      -0.264673      0.604501      1.621195
  H       0.657514      1.057934      1.587508
  O      -1.569749     -1.279256      0.729021
  O      -4.001889     -0.544589     -0.477683
  H      -3.279074     -0.967979      0.023984
  H      -4.793360     -0.661495      0.061702
  O       2.586249      1.215046     -1.123995
  H       1.686893      0.997544     -1.416637
  H       3.045104      0.349717     -1.183530
  O      -2.439005      1.551613     -1.130259
  H      -3.168868      0.922256     -0.913863
  H      -2.535207      2.279552     -0.501909
  O       3.350887     -1.455487     -1.012417
  H       2.585446     -1.620841     -0.432860
  H       4.100812     -1.846984     -0.547539
  O       2.053562      1.708674      1.441946
  H       2.346983      1.548291      0.501880
  H       2.133140      2.661004      1.579822
