22
1_5-A4 E[RI-MP2/aV[DTQ]Z]	-1080.4665	-1081.1567	-1081.3853
  O      -0.015716     -0.409035      1.103878
  H       0.911225      0.084193      1.245920
  S      -0.226881     -0.682156     -0.450367
  O      -1.448513     -1.506976     -0.576782
  O      -0.504349      0.804721     -1.057438
  H      -1.305618      1.199885     -0.557918
  O       1.021082     -1.122615     -1.110940
  O       1.973675      2.313697     -0.839512
  H       1.896142      3.252451     -1.049098
  H       1.139838      1.912124     -1.142460
  O       3.462986     -1.416767      0.338943
  H       2.718856     -1.498416     -0.286288
  H       4.256778     -1.476865     -0.206921
  O       2.191727      0.749549      1.427618
  H       2.247575      1.442691      0.735146
  H       2.849239      0.072642      1.148191
  O      -3.846701     -0.544606      0.541277
  H      -3.100536     -1.067862      0.187306
  H      -4.621694     -0.847368      0.051816
  O      -2.529567      1.788020      0.222955
  H      -3.151270      1.030083      0.356990
  H      -2.291798      2.068281      1.117474
