22
1_5-C5 E[RI-MP2/aV[DTQ]Z]	-1080.4667	-1081.1563	-1081.3850
  O      -0.451702      1.381630      0.011599
  H       0.509984      1.618231     -0.279257
  S      -0.421717      0.031708      0.875861
  O      -1.766012     -0.073548      1.487023
  O      -0.208649     -1.129740     -0.222736
  H      -1.044476     -1.175200     -0.809065
  O       0.790168     -0.022837      1.726154
  O       3.393512     -0.066145     -1.350823
  H       4.346439     -0.049488     -1.499542
  H       3.242195     -0.755785     -0.660616
  O       2.735620     -1.818360      0.631118
  H       2.181115     -2.523156      0.269432
  H       2.094395     -1.265130      1.117936
  O       1.904158      2.066026     -0.698657
  H       2.358325      2.467390      0.054442
  H       2.491173      1.314282     -0.974428
  O      -3.688817      0.791999     -0.424139
  H      -3.508098      1.697041     -0.711256
  H      -3.139584      0.680986      0.375975
  O      -2.329331     -1.167445     -1.719114
  H      -2.918828     -0.456203     -1.363926
  H      -2.862262     -1.972920     -1.694920
