22
1_5-A11 E[RI-MP2/aV[DTQ]Z]	-1080.4654	-1081.1554	-1081.3840
  O       0.317315      0.570681     -0.983110
  H       1.091734      1.130026     -0.612623
  S       0.321553     -0.872698     -0.220781
  O       1.644761     -1.515422     -0.369435
  O       0.195395     -0.460295      1.318099
  H      -0.734485     -0.016544      1.469953
  O      -0.885655     -1.561691     -0.715073
  O      -3.644752     -0.790745     -0.039906
  H      -2.927386     -1.371977     -0.344082
  H      -3.573342     -0.040180     -0.653459
  O       3.984059     -0.085874      0.266505
  H       3.296477     -0.752378      0.070706
  H       4.734418     -0.322948     -0.292551
  O       2.282797      1.973470     -0.064161
  H       2.124397      2.338073      0.817210
  H       3.030644      1.336489      0.057160
  O      -2.324757      1.729197     -0.983122
  H      -2.458983      2.456784     -1.603498
  H      -1.444312      1.370504     -1.201044
  O      -2.069788      0.648974      1.677765
  H      -2.130220      1.421811      1.089360
  H      -2.732108      0.043534      1.261818
