22
1_5-C9 E[RI-MP2/aV[DTQ]Z]	-1080.4639	-1081.1543	-1081.3831
  O      -1.723843     -1.211707     -1.038256
  H      -2.516500     -0.696092     -0.646883
  S      -0.361035     -0.624156     -0.472173
  O       0.727914     -1.518567     -0.925001
  O      -0.317484      0.778617     -1.249958
  H       0.586489      1.224123     -1.058258
  O      -0.450703     -0.364934      0.997854
  O       2.574977     -1.718223      1.226708
  H       1.927555     -1.798822      0.499300
  H       2.018012     -1.593696      2.007190
  O       3.853286      0.529548      0.381645
  H       3.465708     -0.306787      0.736931
  H       4.636789      0.255520     -0.110928
  O      -3.747251      0.084749     -0.080317
  H      -4.419991     -0.469317      0.336777
  H      -3.408742      0.674508      0.636778
  O      -2.394455      1.485620      1.797161
  H      -2.142876      2.403896      1.636888
  H      -1.586343      0.963190      1.616645
  O       1.934868      1.946561     -0.826182
  H       1.899569      2.758084     -0.304335
  H       2.667327      1.411739     -0.418728
