25
1_6-I3 E[RI-MP2/aV[DTQ]Z]	-1156.7442	-1157.5028	-1157.7539
  O       0.348982      1.524095     -0.524601
  H       1.283966      1.549684     -0.093921
  S      -0.053001     -0.027671     -0.748263
  O       0.955857     -0.711651     -1.590595
  O      -0.105759     -0.644745      0.679163
  H      -1.354210     -0.372640      1.303646
  O      -1.448524      0.081713     -1.316612
  O       3.745725     -0.600261     -0.775204
  H       2.931433     -0.766993     -1.283103
  H       3.592827     -1.121706      0.031835
  O      -3.297069     -1.661049     -0.242677
  H      -2.707159     -1.207484     -0.883947
  H      -4.166905     -1.704323     -0.659293
  O       2.437740     -1.117772      1.797679
  H       2.419085     -1.773221      2.505840
  H       1.525713     -1.103653      1.440882
  O      -2.344770     -0.172807      1.648910
  H      -2.894366     -0.782684      1.061368
  H      -2.529640      0.752963      1.277577
  O       2.689955      1.543884      0.552688
  H       2.651410      1.069999      1.399887
  H       3.212661      0.912154     -0.002474
  O      -2.688070      2.004285      0.280439
  H      -2.228044      1.592709     -0.483435
  H      -2.178484      2.805775      0.463503
