25
1_6-A1 E[RI-MP2/aV[DTQ]Z]	-1156.7455	-1157.5031	-1157.7542
  O      -0.516115     -0.372727      1.161165
  H       0.349392      0.214161      1.258494
  S      -0.666330     -0.837637     -0.355255
  O      -1.925124     -1.610851     -0.432158
  O      -0.840634      0.582367     -1.150174
  H      -1.613166      1.095488     -0.713772
  O       0.578859     -1.411347     -0.898268
  O       1.501173      1.121949      1.408421
  H       1.682307      1.555879      0.553327
  H       2.329474      0.614244      1.597805
  O       3.417303     -0.655040     -1.155285
  H       3.020359      0.202713     -1.388851
  H       2.646201     -1.244375     -1.189515
  O       1.745314      1.748299     -1.367555
  H       1.794708      2.526705     -1.936847
  H       0.856839      1.371508     -1.521195
  O      -2.798849      1.845340     -0.032590
  H      -3.450453      1.141256      0.211726
  H      -2.543972      2.243846      0.810989
  O      -4.221071     -0.353311      0.617639
  H      -3.512906     -0.964867      0.333461
  H      -5.017106     -0.667913      0.171081
  O       3.708038     -0.420054      1.551742
  H       3.772175     -0.568899      0.578452
  H       4.603300     -0.222155      1.850733
