25
1_6-I5 E[RI-MP2/aV[DTQ]Z]		-1156.7430	-1157.5020	-1157.7532
  O      -0.038641     -0.305601      0.845037
  H      -1.314068     -0.052592      1.405288
  S      -0.040980     -0.112651     -0.692623
  O      -1.422778     -0.356327     -1.254025
  O       0.145814      1.480106     -0.935148
  H       1.069725      1.752946     -0.595517
  O       1.070768     -0.854358     -1.335816
  O      -2.328705      0.102004      1.709117
  H      -2.786230     -0.708626      1.321180
  H      -2.624501      0.860360      1.105434
  O       2.724576      0.090492      1.705464
  H       1.784741     -0.157338      1.643784
  H       3.165475     -0.648541      1.236326
  O      -3.065941     -1.945616      0.296183
  H      -2.506411     -1.622947     -0.443918
  H      -3.917018     -2.182262     -0.093442
  O       3.455374     -1.867860     -0.139842
  H       2.687455     -1.566432     -0.661895
  H       3.323807     -2.819594     -0.047643
  O       2.487993      2.119583     -0.013958
  H       2.705876      1.404559      0.645912
  H       2.589383      2.951239      0.465604
  O      -2.891135      1.781674     -0.197898
  H      -2.454379      1.174786     -0.834793
  H      -2.363152      2.590446     -0.259750
