25
1_6-I1 E[RI-MP2/aV[DTQ]Z]	-1156.7479	-1157.5067	-1157.7579
  O      -0.925612      1.308182     -0.449315
  H      -1.843975      1.383976     -0.028984
  S      -0.564827     -0.277592     -0.559654
  O       0.712838     -0.249862     -1.369512
  O      -0.322639     -0.763415      0.874648
  H       1.068600     -0.843806      1.279593
  O      -1.714586     -0.990604     -1.186274
  O      -3.302060      1.441391      0.678425
  H      -4.004252      1.794160      0.116428
  H      -3.542864      0.492281      0.822346
  O       2.660795     -2.049842     -0.772465
  H       1.931202     -1.549847     -1.205298
  H       2.527855     -2.976331     -1.009911
  O       1.957180      2.237549     -0.920632
  H       1.213445      2.845146     -0.803847
  H       1.510450      1.417109     -1.218864
  O       2.084059     -0.974462      1.507950
  H       2.432005     -1.489187      0.710430
  H       2.522492     -0.049894      1.482700
  O      -3.585350     -1.257192      0.900769
  H      -2.957854     -1.382623      0.158691
  H      -3.096106     -1.590310      1.665423
  O       3.170680      1.324204      1.277149
  H       2.739564      1.778955      0.502932
  H       3.181673      1.963670      1.999911
