9
1-A1 E[MP2/aV[DTQ]Z] -774.8488   -775.2649   -775.4037
S          2.79630        1.13940       -0.21920
O          2.08410        1.06960       -1.55250
O          2.49210        2.72520        0.33160
O          2.15080        0.25600        0.82610
O          4.28460        1.10000       -0.27430
H          1.51510        2.75500        0.36910
O         -0.31770        1.53320        0.00280
H          0.21010        0.93350        0.56510
H          0.17100        1.41280       -0.83450
