9
1-C1 E[MP2/aV[DTQ]Z] -774.8451   -775.2613   -775.4002
S         14.71200        0.01230       -0.26880
O         13.39230        0.23430       -0.99830
O         15.81610       -0.50740       -1.12700
O         15.24110        1.60130        0.07300
O         14.53980       -0.64820        1.06520
H         14.44040        2.04870        0.41160
O         12.37970        2.57520       -0.08520
H         12.60460        1.66330       -0.40680
H         12.62940        3.12040       -0.84230
