12
2-A2 E[MP2/aV[DTQ]Z] -851.1333   -851.6176   -851.7790
S         12.68180        1.04640       -0.34920
O         11.79500       -0.04060       -0.93190
O         14.13860        0.78910       -0.50520
O         12.20490        2.43480       -0.71820
O         12.44180        0.95470        1.32110
O         10.02610        2.48340        1.06950
O          9.25790       -0.08120       -0.00520
H         10.16430       -0.06770       -0.41480
H         11.60530        1.45480        1.47210
H          9.55580        1.70660        0.70580
H         10.63530        2.71850        0.33730
H          9.38240       -0.68500        0.73820
