12
2-B1 E[MP2/aV[DTQ]Z]   -851.1314 -851.6155   -851.7770
S         17.56110        0.68940       -0.07540
O         18.72730       -0.24260       -0.12840
O         16.27020        0.16580       -0.65150
O         17.27120        0.81710        1.58690
O         17.85730        2.11130       -0.51630
H         16.50420        1.42520        1.62920
O         20.77900        1.82580       -0.74730
H         20.48260        0.92530       -0.53140
H         19.90980        2.26520       -0.74220
O         15.12810        2.59850        0.44550
H         15.07750        1.74650       -0.02910
H         15.96480        2.93370        0.07420
