15
3-A3  E[MP2/aV[DTQ]Z]   -927.4165   -927.9681   -928.1518
O          9.23960       -6.38510       -1.57120
S          8.02450       -6.81490       -0.76160
O          8.19590       -8.15870       -0.09890
O          8.02360       -5.74870        0.55990
H          8.65660       -5.02790        0.32400
O          6.72160       -6.61690       -1.45370
O         10.09920       -4.00760       -0.26790
H         10.74380       -4.65330        0.09320
H          9.85290       -4.46360       -1.09400
O          9.69270       -7.67350        2.19960
H          9.20560       -8.03370        1.42280
H          9.18860       -6.85520        2.32740
O         11.45870       -6.45530        0.25960
H         11.03320       -6.90480        1.01770
H         10.82200       -6.64480       -0.46020
