15
3-A4  E[MP2/aV[DTQ]Z] -927.4165   -927.9679   -928.1516
O          9.44330      -16.44430        1.67070
S          8.87140      -15.51650        0.65710
O          7.47490      -15.83340        0.19750
O          8.65330      -14.02550        1.44970
H          9.44800      -13.48940        1.22150
O          9.82180      -15.17590       -0.48610
O          7.72630      -14.66050       -2.40160
H          8.64700      -14.80620       -2.11060
H          7.28270      -15.14070       -1.67440
O          7.67560      -12.29710       -0.77070
H          7.60830      -12.98210       -1.46850
H          7.64670      -12.84320        0.03560
O         10.49380      -12.46460       -0.06990
H         10.53770      -13.38610       -0.39520
H          9.63860      -12.17090       -0.44380
