15
3-B1  E[MP2/aV[DTQ]Z]   -927.4153   -927.9676   -928.1516
O         16.89000        1.11880        0.19970
S         16.62110        2.31970       -0.69870
O         15.39540        2.17420       -1.53750
O         16.22770        3.56810        0.34020
H         17.09080        3.83370        0.74220
O         17.86760        2.77880       -1.41760
O         18.96170        4.04930        0.87850
H         18.85760        3.82910       -0.06920
H         19.21920        3.17410        1.23520
O         19.39070        1.24540        1.28870
H         18.47200        1.14210        0.93100
H         19.92910        1.07450        0.50460
O         14.24190       -0.19030       -0.19310
H         15.11020       -0.07920        0.22930
H         14.28090        0.56630       -0.80410
