15
3-B3  E[MP2/aV[DTQ]Z]   -927.4151   -927.9674   -928.1514
O          0.66310      -15.30760       -0.11620
S          0.41880      -14.03230       -0.91540
O         -1.01220      -13.84360       -1.29480
O          0.70790      -12.77980        0.15950
H          1.69110      -12.67300        0.15100
O          1.43230      -13.84400       -2.01530
O          3.49540      -12.98590       -0.25730
H          3.55610      -13.81130        0.26620
H          3.07220      -13.29500       -1.08400
O          3.03820      -15.40860        1.19670
H          2.17960      -15.43960        0.70060
H          2.75540      -15.17600        2.09030
O         -2.16540      -16.10630        0.23560
H         -2.19580      -15.30870       -0.32040
H         -1.20000      -16.17180        0.33620
