15
3-B4  E[MP2/aV[DTQ]Z]   -927.4148   -927.9672   -928.1512
O         16.96660      -15.92140       -0.15280
S         16.64200      -14.63610       -0.89260
O         15.20660      -14.45810       -1.26020
O         16.91160      -13.42350        0.23340
H         17.71390      -13.72290        0.72840
O         17.60880      -14.36310       -2.02400
O         19.17110      -14.78600        1.24220
H         18.57000      -15.47510        0.89320
H         19.70680      -14.55430        0.45610
O         20.16970      -13.85320       -1.28000
H         19.25720      -14.05930       -1.61100
H         20.15720      -12.88950       -1.21860
O         14.14430      -16.73780        0.32130
H         15.11230      -16.79900        0.39370
H         14.09040      -15.93890       -0.23090
