15
3-B5  E[MP2/aV[DTQ]Z]   -927.4136   -927.9651   -928.1491
O          1.02900      -23.68970       -0.79410
S          0.06920      -23.80340        0.37020
O          0.29400      -25.04070        1.19270
O          0.49650      -22.50950        1.39150
H          1.43880      -22.69200        1.59750
O         -1.35690      -23.47880        0.05250
O          0.71240      -21.14190       -2.25460
H         -0.00910      -20.80410       -1.69540
H          0.86540      -22.02090       -1.86130
O         -1.32050      -20.62660       -0.13210
H         -1.54980      -21.57740       -0.17750
H         -0.61630      -20.66360        0.53350
O          3.03250      -23.99550        1.33770
H          2.84080      -23.86230        0.39160
H          2.35810      -24.66760        1.54990
