18
4-E3   E[MP2/aV[DTQ]Z     -1003.694503696   -1004.314089186   -1004.520438706
O         -0.76850      -34.34710       -0.13610
S          0.42150      -34.81350        0.65270
O          1.67210      -35.05750       -0.14350
O          0.76830      -33.39000        1.55390
H          1.57840      -33.61270        2.04520
O          0.13590      -35.85920        1.68510
O          0.98010      -31.11580       -0.33820
H          0.84240      -31.77420        0.36600
H          0.36730      -31.42740       -1.03450
O         -2.82260      -35.71010        1.65400
H         -2.61310      -35.11220        0.91930
H         -1.91970      -35.96430        1.91300
O         -0.28100      -32.66700       -2.42410
H          0.65850      -32.88640       -2.57290
H         -0.53580      -33.31880       -1.74140
O          2.58490      -32.99980       -1.93170
H          2.36150      -33.76170       -1.36070
H          2.33040      -32.24510       -1.36810
