18
4-F2   E[MP2/aV[DTQ]Z     -1003.696969723   -1004.316609038   -1004.522949957
O         -0.15950      -16.07070       -0.96560
S         -0.64780      -16.89390        0.20900
O          0.26780      -18.05230        0.52230
O         -0.55010      -15.85750        1.52750
H          0.33330      -15.41550        1.43120
O         -2.10040      -17.24810        0.18260
O         -2.00450      -13.84210       -1.57590
H         -1.38740      -14.59190       -1.49620
H         -2.59120      -13.99300       -0.81360
O         -3.35610      -14.79060        0.90310
H         -3.14310      -15.69490        0.59350
H         -2.57740      -14.62080        1.45480
O          1.84120      -14.74390        0.65920
H          2.38040      -15.56000        0.58480
H          1.30190      -14.80130       -0.15120
O          2.90000      -17.36050        0.29150
H          3.04830      -17.44150       -0.65970
H          1.96440      -17.67080        0.38970
