18
4-F3   E[MP2/aV[DTQ]Z     -1003.696112827   -1004.315981659   -1004.522486786
O         19.08670      -15.80590        0.40460
S         17.71050      -16.01380        0.99870
O         17.59380      -17.11580        1.99800
O         17.40370      -14.63550        1.87640
H         17.79730      -13.90280        1.33420
O         16.63100      -16.06960       -0.07570
O         18.64760      -13.01170       -0.00780
H         17.92450      -13.10250       -0.66280
H         19.12010      -13.86270       -0.09830
O         16.35500      -13.77180       -1.52160
H         16.45290      -14.64780       -1.06970
H         15.56440      -13.40660       -1.10450
O         19.55350      -18.38610       -1.12920
H         18.68320      -18.75190       -0.89060
H         19.54070      -17.52620       -0.67390
O         16.79950      -19.01410       -0.12470
H         16.50180      -18.14180       -0.43990
H         17.06360      -18.77010        0.78050
