18
4-F4   E[MP2/aV[DTQ]Z     -1003.696523687   -1004.316242976   -1004.522592319
O         -0.42500      -26.22090       -0.01830
S         -0.63760      -24.84880       -0.62050
O         -2.01740      -24.57720       -1.12980
O         -0.51020      -23.79210        0.68420
H          0.24260      -24.15520        1.22090
O          0.45860      -24.45660       -1.58100
O          1.58270      -25.23400        1.80100
H          2.23060      -24.99820        1.10490
H          1.05370      -25.93200        1.36930
O          2.96420      -24.32560       -0.51940
H          3.06860      -23.36760       -0.45610
H          2.08580      -24.41850       -0.96780
O         -2.68840      -26.94310        1.77910
H         -3.12770      -26.07630        1.72150
H         -1.94350      -26.82610        1.16230
O         -3.51730      -24.12910        1.24500
H         -3.20360      -24.29230        0.33150
H         -2.70710      -23.76510        1.63250
