18
4-F5   E[MP2/aV[DTQ]Z     -1003.696774896   -1004.31624834   -1004.522570249
O          8.58990      -26.09030       -0.07970
S          8.48950      -24.72590       -0.74140
O          7.29410      -24.53890       -1.61570
O          8.19730      -23.66270        0.52510
H          8.86050      -23.91770        1.21820
O          9.79550      -24.28260       -1.35420
O         11.99490      -24.90200        0.13730
H         12.15330      -25.82090       -0.11450
H         11.23390      -24.64780       -0.44300
O         10.00330      -24.98810        2.17830
H         10.82300      -24.93970        1.64340
H          9.51280      -25.68910        1.70850
O          5.50600      -24.54340        1.69090
H          5.41410      -25.31150        1.09790
H          6.31290      -24.12610        1.34640
O          5.73650      -26.66630       -0.35470
H          5.88880      -25.95210       -1.00010
H          6.66120      -26.82020       -0.08640
