21
5-A1   E[MP2/aV[DTQ]Z     -1079.987208628   -1080.674211002   -1080.902696017
O          1.86790        9.96480       -1.28760
S          2.04260        8.44760       -1.17550
O          3.23990        7.93430       -1.91060
O          2.44880        8.16940        0.41710
H          1.70160        8.54840        0.97330
O          0.75700        7.71150       -1.41700
O         -0.97880        9.80800       -0.57860
H         -0.72470        8.91520       -0.88670
H         -0.21560       10.29830       -0.93330
O          4.73550        9.95120        0.99050
H          4.13600        9.18760        0.90030
H          4.91900       10.16680        0.05250
O          4.73250       10.38760       -1.85100
H          4.56540        9.44310       -2.03630
H          3.80760       10.68680       -1.79140
O          0.54700        9.45520        1.82640
H          1.09510       10.26970        1.78140
H         -0.12890        9.60330        1.13140
O          2.34290       11.49850        1.08730
H          3.22820       11.10890        1.25010
H          2.14950       11.12570        0.20430
