21
5-A3   E[MP2/aV[DTQ]Z     -1079.980551965   -1080.667784113   -1080.896552502
O          4.43960       -0.27850       -0.50270
S          5.46840        0.79070       -0.26130
O          5.03040        2.20820       -0.47300
O          5.75430        0.74420        1.39400
H          5.79600       -0.22970        1.60600
O          6.79930        0.47910       -0.92390
O          6.10980       -1.95440        1.53730
H          5.60530       -2.01040        0.70900
H          7.04120       -1.80520        1.24620
O          7.97210        3.04250       -0.50480
H          7.06770        3.34260       -0.31530
H          7.76640        2.16750       -0.89140
O          2.21980        1.56750       -1.29770
H          2.63040        0.70480       -1.12090
H          2.96650        2.14470       -1.06710
O          8.58080       -1.04740        0.63190
H          8.75890       -0.24290        1.16370
H          8.07070       -0.65140       -0.10350
O          8.53440        1.53410        1.90100
H          7.57640        1.36050        1.94950
H          8.56590        2.14250        1.13500
