24
6-A1   E[MP2/aV[DTQ]Z     -1156.265517808   -1157.020111607   -1157.271281955
O         12.41080        3.59110        1.36850
S         11.01240        4.07130        1.12980
O          9.91890        3.19040        1.67770
O         10.94780        5.47650        2.01650
H         10.03400        5.80580        1.85050
O         10.73600        4.50130       -0.30460
O         13.50390        4.40840       -1.23340
H         13.60210        4.16610       -0.29590
H         12.56320        4.66380       -1.22540
O         12.76500        0.76040        0.51450
H         12.93430        1.01030       -0.42230
H         12.73380        1.62640        0.95870
O         10.13140        2.14110       -1.97400
H          9.96340        1.51250       -1.23680
H         10.22590        2.98610       -1.49730
O          9.95540        0.57630        0.37250
H          9.79700        1.36500        0.92320
H         10.92930        0.47110        0.45950
O         12.95120        1.71590       -2.12920
H         13.23670        2.63150       -1.93710
H         11.97920        1.81180       -2.22510
O          8.28150        5.57560        0.97320
H          8.27810        4.66500        1.31740
H          8.76710        5.45060        0.13900
