24
6-B3   E[MP2/aV[DTQ]Z     -1156.262916988   -1157.018278458   -1157.269444574
O         31.32260       -7.19580        0.02340
S         31.19080       -5.95860       -0.85420
O         29.91760       -5.89960       -1.62770
O         31.06890       -4.67710        0.20540
H         32.01040       -4.42800        0.43450
O         32.45140       -5.69510       -1.64520
O         27.37570       -6.31750       -0.32500
H         27.56510       -5.68760        0.39520
H         28.16790       -6.21520       -0.88740
O         28.73500       -5.10250        2.00000
H         28.87970       -6.06530        2.09130
H         29.49380       -4.82850        1.45560
O         33.91610       -8.10880       -1.21840
H         33.07140       -8.47990       -0.91590
H         33.59670       -7.24550       -1.55270
O         33.70350       -4.28740        0.70050
H         33.86170       -5.19770        1.05160
H         33.85150       -4.41270       -0.25110
O         28.95510       -7.95080        1.48400
H         29.79770       -7.80460        1.01150
H         28.29740       -7.67760        0.81500
O         33.84150       -6.94880        1.41920
H         32.88110       -7.05460        1.27200
H         34.17690       -7.36540        0.59970
