24
6-C2   E[MP2/aV[DTQ]Z     -1156.263849304   -1157.018786018   -1157.269966382
O         21.19620       -5.60700       -0.77900
S         19.88630       -5.54460       -0.00010
O         20.00160       -6.24260        1.33790
O         19.65870       -3.94170        0.36540
H         20.15220       -3.80520        1.21790
O         18.69530       -5.89950       -0.82400
O         21.32140       -3.98960        2.56770
H         21.06560       -4.93040        2.52570
H         22.08320       -3.93530        1.95500
O         18.67760       -8.69370       -1.57380
H         19.46920       -8.54880       -2.13300
H         18.47030       -7.77760       -1.30910
O         22.92240       -3.65790        0.21410
H         22.43740       -4.40970       -0.19640
H         22.40180       -2.90300       -0.09270
O         22.49380       -8.32540       -0.31430
H         22.28520       -7.37900       -0.22890
H         21.73270       -8.74090        0.14960
O         20.06210       -9.13730        0.86900
H         19.51530       -9.11970        0.05300
H         19.96120       -8.22780        1.20620
O         21.14140       -7.86420       -2.78140
H         21.72240       -8.20960       -2.07130
H         21.01380       -6.95070       -2.47130
