24
6-D4   E[MP2/aV[DTQ]Z     -1156.259061708   -1157.014015767   -1157.265294092
O         21.52060      -35.90210       -1.09960
S         20.53600      -35.79520        0.04920
O         20.96860      -36.61580        1.24050
O         20.57190      -34.20780        0.54720
H         21.53180      -33.90180        0.54690
O         19.10190      -35.96490       -0.35360
O         19.17360      -33.20080       -1.77800
H         18.87630      -34.11550       -1.91040
H         19.50520      -33.26620       -0.86330
O         22.02370      -33.45160       -2.42330
H         21.91970      -34.39060       -2.17000
H         21.09210      -33.16060       -2.38580
O         18.20040      -37.68720        1.81280
H         19.03970      -37.36470        2.18020
H         18.17520      -37.15900        0.99320
O         20.28870      -39.56280        0.81760
H         19.41710      -39.22650        1.08950
H         20.80830      -38.74270        0.83480
O         23.07070      -33.33120        0.22420
H         23.55960      -34.17690        0.29870
H         22.88480      -33.23870       -0.73580
O         23.86840      -36.07640        0.50380
H         23.25060      -36.21730       -0.24130
H         23.28400      -36.31900        1.24090
