24
6-F1   E[MP2/aV[DTQ]Z     -1156.258303096   -1157.013794316   -1157.265344788
O         10.72560      -36.94730        1.36350
S         11.31780      -36.17550        0.20940
O         10.57240      -36.40020       -1.09550
O         11.11270      -34.57530        0.57720
H         10.12650      -34.41150        0.59100
O         12.80310      -36.31780        0.06780
O          8.43930      -34.10680        0.36700
H          8.42100      -33.55020       -0.42280
H          8.09430      -34.97730        0.03210
O          7.79890      -36.46200       -0.81270
H          7.75170      -37.24120       -0.21740
H          8.74330      -36.49080       -1.07860
O         10.81620      -39.76340        0.41600
H         11.26430      -39.54890       -0.42570
H         11.00360      -38.96370        0.93980
O         12.27620      -38.61500       -1.83850
H         11.56490      -37.95400       -1.93520
H         12.89480      -38.10220       -1.29020
O          8.29150      -38.47140        1.08350
H          8.92530      -39.09290        0.67480
H          8.91250      -37.79620        1.41580
O         13.92860      -33.89440        1.38890
H         12.98460      -33.68230        1.33570
H         13.91530      -34.78030        0.98860
