14
I-a(C1) E[RI-MP2/aV[DTQ]Z] -1398.1566  -1398.8666  -1399.1008
S          1.77056        0.02756       -0.08210
O          3.35479        0.10317       -0.25411
O          1.24947        1.33213       -0.46459
O          1.70952       -0.17533        1.50077
O          1.24818       -1.16762       -0.75058
H          3.73930       -0.79808       -0.16964
H          0.74094       -0.23232        1.73357
S         -1.95445       -0.01962        0.10931
O         -1.59678       -1.14320       -0.98011
O         -3.37850       -0.05459        0.30631
O         -1.61298        1.35979       -0.63660
O         -1.00951       -0.16891        1.22917
H         -0.61722       -1.30114       -0.98660
H         -0.63450        1.52071       -0.61479
