20
S2W2-I_e E[RI-MP2/aV[DTQ]Z//MP2/6-31+G*] -1550.7204 -1,551.5667 -1,551.8457
S         -1.68003        0.28099        0.61325
O         -2.12892        1.45973       -0.33176
O         -0.52002        0.69005        1.40416
O         -1.09064       -0.82044       -0.42263
O         -2.87674       -0.25817        1.23352
H         -1.30384        1.96974       -0.68278
H         -1.87383       -1.32714       -0.82143
S          2.44225       -0.37085       -0.09482
O          1.56811       -1.71934       -0.14384
O          3.82959       -0.74301       -0.20272
O          2.22018        0.15487        1.40545
O          1.82041        0.58337       -1.02242
H          0.61898       -1.48091       -0.31004
H          1.26463        0.39675        1.52468
O         -3.33632       -2.03047       -1.15497
H         -3.82709       -1.77402       -1.95544
H         -3.90356       -1.79223       -0.39636
O         -0.00999        2.67580       -1.22865
H          0.74060        2.03919       -1.19780
H          0.28326        3.46738       -0.74484
