20
S2W2-I_i E[RI-MP2/aV[DTQ]Z//MP2/6-31+G*] -1550.7176 -1,551.5641 -1,551.8434
S          1.17437       -0.69055        0.20518
O          1.32786        0.58061        1.12700
O          2.43560       -1.39492        0.03130
O          0.82905       -0.08449       -1.23822
O          0.01025       -1.41251        0.72700
H          2.11825        1.16391        0.81355
H         -0.08823        0.30828       -1.19931
S         -2.82697        0.34448       -0.10411
O         -2.40078       -0.29389        1.28958
O         -4.04779        1.08273        0.12812
O         -3.12690       -0.95787       -1.02669
O         -1.66637        0.95202       -0.75380
H         -1.49559       -0.71774        1.19471
H         -3.96970       -1.36783       -0.73121
O          4.92713       -0.08167       -0.50457
H          5.45130       -0.30130       -1.29237
H          4.23125       -0.76633       -0.42861
O          3.33936        2.00910        0.28515
H          4.04599        1.40243       -0.05353
H          3.12916        2.62286       -0.43935
