20
S2W2-I_c E[RI-MP2/aV[DTQ]Z//MP2/6-31+G*] -1550.7209 -1,551.5677 -1,551.8469
S          1.45442       -0.23226       -0.55357
O          2.03082        1.23555       -0.67145
O          0.97679       -0.43437        0.83074
O          2.76476       -1.06892       -0.79901
O          0.52723       -0.53831       -1.63830
H          1.34019        1.91546       -0.32284
H          3.35105       -0.97311        0.02080
S         -2.49626       -0.18304        0.19395
O         -1.70982       -0.88536        1.40285
O         -3.90320       -0.30865        0.47648
O         -2.17344       -1.12290       -1.06471
O         -1.86747        1.12136       -0.05955
H         -0.73207       -0.73847        1.28733
H         -1.25798       -0.92431       -1.39796
O          3.96668       -0.67033        1.54934
H          4.50417        0.13259        1.66727
H          3.19779       -0.57059        2.14195
O          0.24002        2.88981        0.26465
H          0.04917        3.68046       -0.27004
H         -0.60171        2.37979        0.29898
