20
S2W2-II_c E[RI-MP2/aV[DTQ]Z//MP2/6-31+G*] -1550.7161 -1,551.5637 -1,551.8432
S          1.88928       -0.47180       -0.13989
O          2.41778        0.83660       -0.64321
O          1.15698       -0.24985        1.15901
O          3.18794       -1.38292        0.19783
O          1.15592       -1.29606       -1.10859
H          1.62372        2.01554        0.09313
H          3.80600       -0.85521        0.74791
S         -2.03559       -0.59373        0.05450
O         -1.35752       -1.27726        1.32935
O         -3.46653       -0.71974        0.17751
O         -1.57830       -1.50847       -1.16895
O         -1.40147        0.73173       -0.10536
H         -0.39277       -0.99978        1.36828
H         -0.58291       -1.45535       -1.26320
O          0.95938        2.44006        0.75362
H          0.16685        2.85557        0.22847
H          0.62777        1.61590        1.20702
O         -1.10422        3.36968       -0.47638
H         -1.04733        3.78375       -1.35539
H         -1.62008        2.53786       -0.57874
