23
S2W3-I_d E[RI-MP2/aV[DTQ]Z//MP2/6-31+G*] -1627.0013 -1,627.9161 -1,628.2176
S         -2.74714       -0.56033        0.05372
O         -1.72572       -1.79856       -0.01903
O         -4.08156       -1.09609        0.13997
O         -2.61219        0.11272       -1.39707
O         -2.22579        0.37894        1.05594
H         -0.80478       -1.46920        0.15351
H         -1.68914        0.46220       -1.50809
S          1.26122        0.57938       -0.66655
O          1.62976        1.73748        0.34342
O          0.05738        0.92608       -1.42162
O          0.80802       -0.62038        0.29675
O          2.48736        0.22682       -1.36586
H          0.77024        2.10984        0.77269
H          1.60142       -0.95134        0.88552
O         -0.57373        2.58758        1.44373
H         -0.97431        3.39599        1.07945
H         -1.25357        1.87998        1.35591
O          2.78227       -1.43795        1.72336
H          2.97827       -0.88726        2.50137
H          3.60068       -1.44095        1.16264
O          4.67491       -1.23243       -0.22635
H          5.61348       -1.00982       -0.34024
H          4.16682       -0.66794       -0.84337
