23
S2W3-III_a E[RI-MP2/aV[DTQ]Z//MP2/6-31+G*] -1626.9995 -1,627.9163 -1,628.2186
S         -2.31577       -0.21472       -0.14917
O         -2.00820       -1.56224       -0.72647
O         -3.89381       -0.22587        0.24725
O         -2.15972        0.88635       -1.13882
O         -1.63441        0.00144        1.14827
H         -4.41905       -0.25621       -0.58164
S          2.31573       -0.21473       -0.14929
O          2.15960        0.88636       -1.13889
O          3.89365       -0.22531        0.24766
O          2.00878       -1.56233       -0.72669
O          1.63390        0.00114        1.14798
H          4.41918       -0.25507       -0.58106
O         -0.00009        2.40887       -0.92976
H         -0.00005        2.46977        0.12795
H          0.81624        1.85602       -1.15466
H         -0.81643        1.85601       -1.15461
O          0.00026       -2.37166        0.66701
H          0.00067       -1.61988        1.31268
H         -0.83298       -2.19133        0.07786
H          0.83331       -2.19175        0.07759
O          0.00001        2.25163        1.60095
H         -0.76670        1.64841        1.73167
H          0.76658        1.64820        1.73155
