23
S2W3-II_g E[RI-MP2/aV[DTQ]Z//MP2/6-31+G*] -1627.0033 -1,627.9162 -1,628.2174
S          2.30496       -0.46162       -0.15405
O          1.71848        0.23463       -1.46734
O          1.77601       -1.83534       -0.03208
O          1.55570        0.31229        1.01975
O          3.73249       -0.23912       -0.17105
H          0.71565        0.16090       -1.44347
H          1.51715        1.32055        0.86224
S         -1.68268        0.78877       -0.06897
O         -0.90271       -0.04047       -1.02448
O         -3.21838        0.31669       -0.50669
O         -1.59767        2.24712       -0.23962
O         -1.53611        0.33638        1.34720
H         -3.86244        0.80250        0.05386
O         -0.52908       -2.06671        1.27482
H          0.36390       -2.02616        0.79707
H         -1.23764       -2.38146        0.60824
H         -0.80426       -1.09826        1.45820
O          1.10437        2.86196        0.55220
H          0.15613        2.88915        0.29074
H          1.59716        3.30682       -0.15924
O         -2.50743       -2.58224       -0.38970
H         -2.23616       -2.86415       -1.28169
H         -2.93117       -1.70594       -0.52173
