23
S2W3-II_a E[RI-MP2/aV[DTQ]Z//MP2/6-31+G*] -1627.0057 -1,627.9217 -1,628.2234
S          2.36182       -0.07074       -0.04204
O          2.17507       -1.37334       -0.93549
O          3.77163        0.20946        0.05543
O          1.84557       -0.50290        1.40470
O          1.42255        0.94625       -0.56755
H          1.19388       -1.54643       -1.06041
H          0.84483       -0.60493        1.38960
S         -1.48849       -1.13729       -0.05893
O         -0.52263       -1.70968       -1.02615
O         -2.35953       -2.38058        0.53829
O         -2.46012       -0.19215       -0.65853
O         -0.84934       -0.61113        1.19053
H         -2.83032       -2.81012       -0.20835
O         -0.26334        2.86265        0.04115
H          0.51049        2.22649       -0.05421
H         -0.86613        2.66648       -0.77774
H         -0.79067        2.56666        0.87782
O         -1.80487        2.16737       -1.89625
H         -2.09913        1.26621       -1.60843
H         -1.41739        2.06380       -2.78307
O         -1.52909        1.89572        2.06953
H         -2.47273        2.08370        2.21489
H         -1.45329        0.92322        1.90016
