26
S2W4-III_d E[RI-MP2/aV[DTQ]Z//MP2/6-31+G*] -1703.2866 -1,704.2710 -1,704.5954
S          2.47697       -0.00002       -0.00451
O          3.80887        0.00008       -0.94731
O          2.49100       -1.25021        0.77978
O          1.39478        0.00002       -1.06763
O          2.49095        1.25008        0.77994
H          4.59678        0.00004       -0.36157
H          0.58867       -1.47893       -1.21561
S         -2.46388        0.00000       -0.11123
O         -2.42592        1.24048       -0.93687
O         -2.42588       -1.24047       -0.93688
O         -3.90343       -0.00003        0.64530
O         -1.49736        0.00001        1.01825
H         -0.95938        1.93916       -1.20067
H         -4.61014       -0.00009       -0.03628
O         -0.01297       -2.27935       -1.07839
H         -0.95935       -1.93917       -1.20067
H          0.03779       -2.46930       -0.03819
O          0.03155       -2.41164        1.45049
H          0.93412       -2.06475        1.62797
H         -0.58008       -1.66394        1.63648
O         -0.01300        2.27935       -1.07840
H          0.58865        1.47895       -1.21562
H          0.03776        2.46932       -0.03819
O          0.03162        2.41170        1.45047
H          0.93416        2.06470        1.62784
H         -0.58008        1.66409        1.63657
