26
S2W4-II_f E[RI-MP2/aV[DTQ]Z//MP2/6-31+G*] -1703.2873 -1,704.2692 -1,704.5930
S         -1.82869       -1.34074       -0.02719
O         -1.06823       -1.98618        1.21969
O         -3.17041       -1.87386       -0.04626
O         -1.05292       -1.92345       -1.29409
O         -1.59795        0.11795        0.01124
H         -0.16961       -1.54705        1.31083
H         -0.15343       -1.47636       -1.35272
S          2.09599       -0.44623        0.01480
O          1.29085       -0.58187       -1.25040
O          3.01515       -1.79109        0.09914
O          1.25582       -0.59754        1.24151
O          2.96643        0.73570        0.00175
H          3.63110       -1.79107       -0.66524
O         -0.43911        3.17605        0.04087
H         -0.09477        2.68849        0.87886
H         -1.44046        2.98597       -0.04118
H          0.03863        2.75894       -0.77441
O         -2.93489        2.48070       -0.21267
H         -3.62335        2.72028        0.43131
H         -2.80346        1.50668       -0.14599
O          0.41856        1.90497        2.12802
H          0.66046        0.97803        1.88140
H          1.21406        2.27140        2.55356
O          0.80135        2.09042       -1.94853
H          1.73483        2.37107       -1.97451
H          0.85197        1.11091       -1.82580
