26
S2W4-II_b E[RI-MP2/aV[DTQ]Z//MP2/6-31+G*] -1703.2897 -1,704.2724 -1,704.5964
S         -2.01060       -1.13029       -0.09270
O         -1.40282       -2.29839        0.79683
O         -3.41409       -1.40107       -0.28748
O         -1.27418       -1.27113       -1.49694
O         -1.59055        0.16337        0.50263
H         -0.41654       -2.14030        0.91480
H         -0.32834       -0.92724       -1.42915
S          1.98707       -0.74767        0.06426
O          1.20344       -1.64976        0.94792
O          3.18357       -1.64060       -0.59024
O          2.61561        0.37988        0.78639
O          1.23383       -0.32554       -1.16119
H          3.75316       -1.97013        0.13852
O          0.00642        3.32843        0.30321
H         -0.97682        3.22163        0.06946
H          0.19136        2.64443        1.07266
H          0.55789        3.01944       -0.50741
O          0.38395        1.53973        2.08986
H          1.26405        1.13194        1.91392
H         -0.26646        0.84031        1.86471
O          1.36090        2.39594       -1.70108
H          2.29196        2.66704       -1.78415
H          1.37463        1.41090       -1.60340
O         -2.47331        2.69710       -0.23327
H         -2.44942        1.73855       -0.00980
H         -3.28112        3.06712        0.16181
