26
S2W4-II_c E[RI-MP2/aV[DTQ]Z//MP2/6-31+G*] -1703.2891 -1,704.2706 -1,704.5943
S          1.19924       -1.44029       -0.03131
O          0.47560       -2.38897       -1.08299
O          2.59176       -1.86098        0.04232
O          0.51109       -1.79519        1.35805
O          0.89666       -0.04380       -0.36175
H         -0.46803       -2.05384       -1.16856
H         -0.34205       -1.25599        1.43623
S         -2.23544       -0.00642       -0.05874
O         -1.58256       -0.11396        1.29888
O         -3.83833       -0.16147        0.20697
O         -1.94660       -1.16321       -0.92801
O         -2.05102        1.34252       -0.64384
H         -4.16749        0.69436        0.55484
O          1.82464        2.55759        0.09375
H          1.23102        2.46799       -0.75352
H          2.56132        1.86591        0.03329
H          1.21743        2.28620        0.87467
O          0.21761        2.34570       -1.91516
H          0.51085        1.65475       -2.53604
H         -0.61662        1.98431       -1.52271
O          0.23081        1.86324        2.02355
H         -0.25535        2.55781        2.50021
H         -0.44450        1.19331        1.74433
O          3.81258        0.79494       -0.10000
H          3.57215       -0.15696       -0.05211
H          4.64242        0.89821        0.39611
