26
S2W4-III_a E[RI-MP2/aV[DTQ]Z//MP2/6-31+G*] -1703.2888 -1,704.2745 -1,704.5990
S         -2.38550        0.00002       -0.26637
O         -1.78834       -0.00008        1.09367
O         -3.98252       -0.00009        0.05319
O         -2.12346       -1.23973       -1.04862
O         -2.12358        1.23993       -1.04838
H         -4.46488       -0.00001       -0.80191
S          2.38550        0.00002       -0.26637
O          2.12349        1.23991       -1.04838
O          3.98255       -0.00006        0.05303
O          2.12340       -1.23975       -1.04857
O          1.78848       -0.00006        1.09373
H          4.46482       -0.00001       -0.80212
O         -0.00003        2.73208       -0.58408
H         -0.00002        2.59958        0.46159
H         -0.81417        2.21696       -0.89387
H          0.81409        2.21695       -0.89388
O         -0.00004       -2.73200       -0.58421
H         -0.00000       -2.59961        0.46146
H          0.81408       -2.21684       -0.89399
H         -0.81418       -2.21685       -0.89396
O          0.00004       -2.06807        1.86578
H         -0.77266       -1.45810        1.86919
H          0.77278       -1.45816        1.86922
O          0.00002        2.06788        1.86583
H          0.77276        1.45796        1.86920
H         -0.77268        1.45792        1.86920
